
**** 06/22/24 19:36:33 ********* PSpice 9.2 (Mar 2000) ******** ID# 1 ********

 ** Profile: "SCHEMATIC1-sim1"  [ i:\ee\semester_2\circuits\lab\ec_report-main\report 5\pspice\sim-schematic1-sim1.sim ] 


 ****     CIRCUIT DESCRIPTION


******************************************************************************




** Creating circuit file "sim-schematic1-sim1.sim.cir" 
** WARNING: THIS AUTOMATICALLY GENERATED FILE MAY BE OVERWRITTEN BY SUBSEQUENT SIMULATIONS

*Libraries: 
* Local Libraries :
* From [PSPICE NETLIST] section of E:\Program Files\Orcad\PSpice\PSpice.ini file:
.lib "nom.lib" 

*Analysis directives: 
.DC LIN V_V2 -100 100 0.1 
.PROBE V(*) I(*) W(*) D(*) NOISE(*) 
.INC ".\sim-SCHEMATIC1.net" 



**** INCLUDING sim-SCHEMATIC1.net ****
* source SIM
V_V2         N00647 0 1Vdc
R_R2         0 N00696  1k  
D_D7         N01711 N00696 D1N4099 
D_D8         N016050 N00696 D1N4099 
V_0_0_7         N01711 N00647 0Vdc
V_-10         N016050 N00647 0Vdc

**** RESUMING sim-schematic1-sim1.sim.cir ****
.END

**** 06/22/24 19:36:33 ********* PSpice 9.2 (Mar 2000) ******** ID# 1 ********

 ** Profile: "SCHEMATIC1-sim1"  [ i:\ee\semester_2\circuits\lab\ec_report-main\report 5\pspice\sim-schematic1-sim1.sim ] 


 ****     Diode MODEL PARAMETERS


******************************************************************************




               D1N4099         
          IS    3.317900E-06 
           N    3.512        
         ISR    2.906100E-06 
          BV    6.9975       
         IBV     .51729      
          RS    1.000000E-03 
          TT  312.000000E-09 
         CJO   80.000000E-12 
          VJ     .3905       
           M     .31349      



          JOB CONCLUDED

          TOTAL JOB TIME             .09
